Version 4
SHEET 1 1396 680
WIRE -1280 -320 -1280 -336
WIRE -1008 -320 -1008 -336
WIRE -720 -320 -720 -336
WIRE -448 -320 -448 -336
WIRE -160 -320 -160 -336
WIRE 176 -320 176 -336
WIRE 448 -320 448 -336
WIRE 736 -320 736 -336
WIRE 1008 -320 1008 -336
WIRE 1296 -320 1296 -336
WIRE -1280 -160 -1280 -240
WIRE -1280 -160 -1392 -160
WIRE -1008 -160 -1008 -240
WIRE -1008 -160 -1120 -160
WIRE -720 -160 -720 -240
WIRE -720 -160 -832 -160
WIRE -448 -160 -448 -240
WIRE -448 -160 -560 -160
WIRE -160 -160 -160 -240
WIRE -160 -160 -272 -160
WIRE 176 -160 176 -240
WIRE 176 -160 64 -160
WIRE 448 -160 448 -240
WIRE 448 -160 336 -160
WIRE 736 -160 736 -240
WIRE 736 -160 624 -160
WIRE 1008 -160 1008 -240
WIRE 1008 -160 896 -160
WIRE 1296 -160 1296 -240
WIRE 1296 -160 1184 -160
WIRE -1312 -144 -1328 -144
WIRE -1040 -144 -1056 -144
WIRE -752 -144 -768 -144
WIRE -480 -144 -496 -144
WIRE -192 -144 -208 -144
WIRE 144 -144 128 -144
WIRE 416 -144 400 -144
WIRE 704 -144 688 -144
WIRE 976 -144 960 -144
WIRE 1264 -144 1248 -144
WIRE -1392 -128 -1392 -160
WIRE -1120 -128 -1120 -160
WIRE -832 -128 -832 -160
WIRE -560 -128 -560 -160
WIRE -272 -128 -272 -160
WIRE 64 -128 64 -160
WIRE 336 -128 336 -160
WIRE 624 -128 624 -160
WIRE 896 -128 896 -160
WIRE 1184 -128 1184 -160
WIRE -1280 -80 -1280 -160
WIRE -1008 -80 -1008 -160
WIRE -720 -80 -720 -160
WIRE -448 -80 -448 -160
WIRE -160 -80 -160 -160
WIRE 176 -80 176 -160
WIRE 448 -80 448 -160
WIRE 736 -80 736 -160
WIRE 1008 -80 1008 -160
WIRE 1296 -80 1296 -160
WIRE -1328 -64 -1328 -144
WIRE -1056 -64 -1056 -144
WIRE -768 -64 -768 -144
WIRE -496 -64 -496 -144
WIRE -208 -64 -208 -144
WIRE 128 -64 128 -144
WIRE 400 -64 400 -144
WIRE 688 -64 688 -144
WIRE 960 -64 960 -144
WIRE 1248 -64 1248 -144
WIRE -1392 -48 -1392 -64
WIRE -1120 -48 -1120 -64
WIRE -832 -48 -832 -64
WIRE -560 -48 -560 -64
WIRE -272 -48 -272 -64
WIRE 64 -48 64 -64
WIRE 336 -48 336 -64
WIRE 624 -48 624 -64
WIRE 896 -48 896 -64
WIRE 1184 -48 1184 -64
WIRE -1328 -16 -1360 -16
WIRE 128 -16 96 -16
WIRE -1360 16 -1360 -16
WIRE -1360 16 -1776 16
WIRE -1056 16 -1056 -16
WIRE -1056 16 -1360 16
WIRE -768 16 -768 -16
WIRE -768 16 -1056 16
WIRE -496 16 -496 -16
WIRE -496 16 -768 16
WIRE -208 16 -208 -16
WIRE -208 16 -496 16
WIRE 96 16 96 -16
WIRE 96 16 -208 16
WIRE 400 16 400 -16
WIRE 400 16 96 16
WIRE 688 16 688 -16
WIRE 688 16 400 16
WIRE 960 16 960 -16
WIRE 960 16 688 16
WIRE 1248 16 1248 -16
WIRE 1248 16 960 16
WIRE -1776 80 -1776 16
WIRE -1280 112 -1280 0
WIRE -1184 112 -1280 112
WIRE -1008 112 -1008 0
WIRE -1008 112 -1104 112
WIRE -976 112 -1008 112
WIRE -720 112 -720 0
WIRE -720 112 -752 112
WIRE -688 112 -720 112
WIRE -448 112 -448 0
WIRE -448 112 -464 112
WIRE -416 112 -448 112
WIRE -160 112 -160 0
WIRE -160 112 -192 112
WIRE -160 128 -160 112
WIRE -32 128 -160 128
WIRE 176 128 176 0
WIRE 176 128 48 128
WIRE 272 128 176 128
WIRE 448 128 448 0
WIRE 448 128 352 128
WIRE 560 128 448 128
WIRE 736 128 736 0
WIRE 736 128 640 128
WIRE 832 128 736 128
WIRE 1008 128 1008 0
WIRE 1008 128 912 128
WIRE 1120 128 1008 128
WIRE 1296 128 1296 0
WIRE 1296 128 1200 128
WIRE -1280 144 -1280 112
WIRE -1008 144 -1008 112
WIRE -720 144 -720 112
WIRE -448 144 -448 112
WIRE -160 144 -160 128
WIRE 176 144 176 128
WIRE 448 144 448 128
WIRE 736 144 736 128
WIRE 1008 144 1008 128
WIRE 1296 144 1296 128
WIRE -1776 192 -1776 160
WIRE -1280 240 -1280 208
WIRE -1008 240 -1008 208
WIRE -720 240 -720 208
WIRE -448 240 -448 208
WIRE -160 240 -160 208
WIRE 176 240 176 208
WIRE 448 240 448 208
WIRE 736 240 736 208
WIRE 1008 240 1008 208
WIRE 1296 240 1296 208
WIRE -1120 304 -1120 160
WIRE -912 304 -912 160
WIRE -912 304 -1120 304
WIRE -768 304 -768 160
WIRE -768 304 -912 304
WIRE -624 304 -624 160
WIRE -624 304 -768 304
WIRE -480 304 -480 160
WIRE -480 304 -624 304
WIRE -352 304 -352 160
WIRE -352 304 -480 304
WIRE -208 304 -208 160
WIRE -208 304 -352 304
WIRE 32 304 32 176
WIRE 32 304 -208 304
WIRE 336 304 336 176
WIRE 336 304 32 304
WIRE 368 304 336 304
WIRE 624 304 624 176
WIRE 624 304 368 304
WIRE 896 304 896 176
WIRE 896 304 624 304
WIRE 1184 304 1184 176
WIRE 1184 304 896 304
WIRE 368 352 368 304
WIRE 368 464 368 432
FLAG -1776 192 0
FLAG 64 -48 0
FLAG 176 240 0
FLAG 144 -144 0
FLAG 176 -336 0
FLAG 336 -48 0
FLAG 448 240 0
FLAG 416 -144 0
FLAG 624 -48 0
FLAG 736 240 0
FLAG 704 -144 0
FLAG 896 -48 0
FLAG 1008 240 0
FLAG 976 -144 0
FLAG 1184 -48 0
FLAG 1296 240 0
FLAG 1264 -144 0
FLAG 448 -336 0
FLAG 736 -336 0
FLAG 1008 -336 0
FLAG 1296 -336 0
FLAG 288 176 0
FLAG 576 176 0
FLAG 848 176 0
FLAG 1136 176 0
FLAG 368 464 0
FLAG -1392 -48 0
FLAG -1280 240 0
FLAG -1312 -144 0
FLAG -1280 -336 0
FLAG -1120 -48 0
FLAG -1008 240 0
FLAG -1040 -144 0
FLAG -832 -48 0
FLAG -720 240 0
FLAG -752 -144 0
FLAG -560 -48 0
FLAG -448 240 0
FLAG -480 -144 0
FLAG -272 -48 0
FLAG -160 240 0
FLAG -192 -144 0
FLAG -1008 -336 0
FLAG -720 -336 0
FLAG -448 -336 0
FLAG -160 -336 0
FLAG -1168 160 0
FLAG -960 160 0
FLAG -816 160 0
FLAG -672 160 0
FLAG -528 160 0
FLAG -400 160 0
FLAG -256 160 0
FLAG -16 176 0
SYMBOL cap 160 144 R0
SYMATTR InstName C1
SYMATTR Value 2µ
SYMBOL cap 48 -128 R0
SYMATTR InstName C2
SYMATTR Value 7µ
SYMBOL voltage 176 -224 R180
WINDOW 123 0 0 Left 0
WINDOW 39 24 44 Left 2
SYMATTR SpiceLine Rser=0
SYMATTR InstName V1
SYMATTR Value 5
SYMBOL voltage -1776 64 R0
WINDOW 123 0 0 Left 0
WINDOW 39 0 0 Left 0
SYMATTR InstName V2
SYMATTR Value PWL(0 1 90ms 1 90.1ms 0 100ms 0)
SYMBOL sw 176 -96 R0
SYMATTR InstName S1
SYMATTR Value MYSW
SYMBOL cap 432 144 R0
SYMATTR InstName C3
SYMATTR Value 4µ
SYMBOL cap 320 -128 R0
SYMATTR InstName C4
SYMATTR Value 5µ
SYMBOL sw 448 -96 R0
SYMATTR InstName S2
SYMATTR Value MYSW
SYMBOL cap 720 144 R0
SYMATTR InstName C5
SYMATTR Value 8µ
SYMBOL cap 608 -128 R0
SYMATTR InstName C6
SYMATTR Value 1µ
SYMBOL sw 736 -96 R0
SYMATTR InstName S3
SYMATTR Value MYSW
SYMBOL cap 992 144 R0
SYMATTR InstName C7
SYMATTR Value 8µ
SYMBOL cap 880 -128 R0
SYMATTR InstName C8
SYMATTR Value 1µ
SYMBOL sw 1008 -96 R0
SYMATTR InstName S4
SYMATTR Value MYSW
SYMBOL cap 1280 144 R0
SYMATTR InstName C9
SYMATTR Value 8µ
SYMBOL cap 1168 -128 R0
SYMATTR InstName C10
SYMATTR Value 1µ
SYMBOL sw 1296 -96 R0
SYMATTR InstName S5
SYMATTR Value MYSW
SYMBOL sw 256 128 R270
SYMATTR InstName S6
SYMATTR Value MYSW
SYMBOL voltage 448 -224 R180
WINDOW 123 0 0 Left 0
WINDOW 39 24 44 Left 2
SYMATTR SpiceLine Rser=0
SYMATTR InstName V3
SYMATTR Value 5
SYMBOL voltage 736 -224 R180
WINDOW 123 0 0 Left 0
WINDOW 39 24 44 Left 2
SYMATTR SpiceLine Rser=0
SYMATTR InstName V4
SYMATTR Value 5
SYMBOL voltage 1008 -224 R180
WINDOW 123 0 0 Left 0
WINDOW 39 24 44 Left 2
SYMATTR SpiceLine Rser=0
SYMATTR InstName V5
SYMATTR Value 5
SYMBOL voltage 1296 -224 R180
WINDOW 123 0 0 Left 0
WINDOW 39 24 44 Left 2
SYMATTR SpiceLine Rser=0
SYMATTR InstName V6
SYMATTR Value 5
SYMBOL sw 544 128 R270
SYMATTR InstName S7
SYMATTR Value MYSW
SYMBOL sw 816 128 R270
SYMATTR InstName S8
SYMATTR Value MYSW
SYMBOL sw 1104 128 R270
SYMATTR InstName S9
SYMATTR Value MYSW
SYMBOL voltage 368 336 R0
WINDOW 123 0 0 Left 0
WINDOW 39 0 0 Left 0
SYMATTR InstName V7
SYMATTR Value PWL(0 0 90.2ms 0 90.3ms 1 100ms 1)
SYMBOL cap -1296 144 R0
SYMATTR InstName C11
SYMATTR Value 1µ
SYMBOL cap -1408 -128 R0
SYMATTR InstName C12
SYMATTR Value 8µ
SYMBOL voltage -1280 -224 R180
WINDOW 123 0 0 Left 0
WINDOW 39 24 44 Left 2
SYMATTR SpiceLine Rser=0
SYMATTR InstName V8
SYMATTR Value 5
SYMBOL sw -1280 -96 R0
SYMATTR InstName S10
SYMATTR Value MYSW
SYMBOL cap -1024 144 R0
SYMATTR InstName C13
SYMATTR Value 1µ
SYMBOL cap -1136 -128 R0
SYMATTR InstName C14
SYMATTR Value 8µ
SYMBOL sw -1008 -96 R0
SYMATTR InstName S11
SYMATTR Value MYSW
SYMBOL cap -736 144 R0
SYMATTR InstName C15
SYMATTR Value 1µ
SYMBOL cap -848 -128 R0
SYMATTR InstName C16
SYMATTR Value 8µ
SYMBOL sw -720 -96 R0
SYMATTR InstName S12
SYMATTR Value MYSW
SYMBOL cap -464 144 R0
SYMATTR InstName C17
SYMATTR Value 1µ
SYMBOL cap -576 -128 R0
SYMATTR InstName C18
SYMATTR Value 8µ
SYMBOL sw -448 -96 R0
SYMATTR InstName S13
SYMATTR Value MYSW
SYMBOL cap -176 144 R0
SYMATTR InstName C19
SYMATTR Value 1µ
SYMBOL cap -288 -128 R0
SYMATTR InstName C20
SYMATTR Value 8µ
SYMBOL sw -160 -96 R0
SYMATTR InstName S14
SYMATTR Value MYSW
SYMBOL sw -1200 112 R270
SYMATTR InstName S15
SYMATTR Value MYSW
SYMBOL voltage -1008 -224 R180
WINDOW 123 0 0 Left 0
WINDOW 39 24 44 Left 2
SYMATTR SpiceLine Rser=0
SYMATTR InstName V9
SYMATTR Value 0
SYMBOL voltage -720 -224 R180
WINDOW 123 0 0 Left 0
WINDOW 39 24 44 Left 2
SYMATTR SpiceLine Rser=0
SYMATTR InstName V10
SYMATTR Value 0
SYMBOL voltage -448 -224 R180
WINDOW 123 0 0 Left 0
WINDOW 39 24 44 Left 2
SYMATTR SpiceLine Rser=0
SYMATTR InstName V11
SYMATTR Value 0
SYMBOL voltage -160 -224 R180
WINDOW 123 0 0 Left 0
WINDOW 39 24 44 Left 2
SYMATTR SpiceLine Rser=0
SYMATTR InstName V12
SYMATTR Value 5
SYMBOL sw -992 112 R270
SYMATTR InstName S16
SYMATTR Value MYSW
SYMBOL cap -832 96 R90
WINDOW 0 0 32 VBottom 2
WINDOW 3 32 32 VTop 2
SYMATTR InstName C21
SYMATTR Value 2µ
SYMBOL sw -848 112 R270
SYMATTR InstName S17
SYMATTR Value MYSW
SYMBOL sw -704 112 R270
SYMATTR InstName S18
SYMATTR Value MYSW
SYMBOL cap -544 96 R90
WINDOW 0 0 32 VBottom 2
WINDOW 3 32 32 VTop 2
SYMATTR InstName C22
SYMATTR Value 2µ
SYMBOL sw -560 112 R270
SYMATTR InstName S19
SYMATTR Value MYSW
SYMBOL sw -432 112 R270
SYMATTR InstName S20
SYMATTR Value MYSW
SYMBOL cap -272 96 R90
WINDOW 0 0 32 VBottom 2
WINDOW 3 32 32 VTop 2
SYMATTR InstName C23
SYMATTR Value 2µ
SYMBOL sw -288 112 R270
SYMATTR InstName S21
SYMATTR Value MYSW
SYMBOL sw -48 128 R270
SYMATTR InstName S22
SYMATTR Value MYSW
TEXT 312 640 Left 2 !.tran 100ms uic
TEXT -296 -552 Left 2 !.model MYSW SW( Ron=0.01 Roff=1000Meg Vt=.5 Vh=0 )
